/*--------------------------------*- C++ -*----------------------------------*  =========                 |
  \      /  F ield         | OpenFOAM: The Open Source CFD Toolbox
   \    /   O peration     | Website:  https://openfoam.org
    \  /    A nd           | Version:  8
     \/     M anipulation  |
\*---------------------------------------------------------------------------*/
FoamFile
{
    version     2.0;
    format      ascii;
    class       dictionary;
    location    constant;
    object      transportProperties;
}
// * * * * * * * * * * * * * * * * * * * * * * * * * * * * * * * * * * * * * //

// water density @ 25°C 997 //

Dab           [0 2 -1 0 0 0 0]     2e-09;
alphatab      [0 0 0 0 0 0 0]        1;


phases (A B);

A
{
    transportModel  Newtonian;
    nu              [0 2 -1 0 0 0 0] 1e-6;
    rho             [1 -3 0 0 0 0 0] 997;
}

B
{
    transportModel  Newtonian;
    nu              [0 2 -1 0 0 0 0] 1e-6;
    rho             [1 -3 0 0 0 0 0] 997;
}

// ************************************************************************* //
