/*--------------------------------*- C++ -*----------------------------------*\
  =========                 |
  \\      /  F ield         | OpenFOAM: The Open Source CFD Toolbox
   \\    /   O peration     | Website:  https://openfoam.org
    \\  /    A nd           | Version:  8
     \\/     M anipulation  |
\*---------------------------------------------------------------------------*/
FoamFile
{
    version     2.0;
    format      ascii;
    class       dictionary;
    location    "system";
    object      controlDict;
}
// * * * * * * * * * * * * * * * * * * * * * * * * * * * * * * * * * * * * * //

application     twoLiquidMixingFoam;

startFrom       startTime;

startTime       0;

stopAt          endTime;

endTime         0.18;

deltaT          0.00001;

writeControl    adjustableRunTime;

writeInterval   0.006;

purgeWrite      0;

writeFormat     ascii;

writePrecision  16;

writeCompression off;

timeFormat      general;

timePrecision   6;

runTimeModifiable yes;

adjustTimeStep  on;

maxCo           0.25;
maxAlphaCo      0.25;
maxDeltaT       0.5;

functions
{
    surfaceAverageOutlet
    {
        type            surfaceFieldValue;
        libs            ("libfieldFunctionObjects.so");
        writeControl    writeTime;
        log             yes;
        writeFields     no;
        regionType      patch;
        name            outlet;
        operation       areaAverage;
        // weightField     phi;

        fields
        (
            M0 M1 M2 M3 M4
        );
    }  

}
// ************************************************************************ //
