/*--------------------------------*- C++ -*----------------------------------*  =========                 |
  \      /  F ield         | OpenFOAM: The Open Source CFD Toolbox
   \    /   O peration     | Website:  https://openfoam.org
    \  /    A nd           | Version:  8
     \/     M anipulation  |
\*---------------------------------------------------------------------------*/
FoamFile
{
    version     2.0;
    format      ascii;
    class       dictionary;
    object      blockMeshDict;
}
// * * * * * * * * * * * * * * * * * * * * * * * * * * * * * * * * * * * * * //

convertToMeters 1;

vertices
(
    // inletA
     (-0.075 -0.0015 0.0015) //0
    (-0.0015 -0.0015 0.0015) //1
    (-0.0015 -0.0015 -0.0015) //2
    (-0.075 -0.0015 -0.0015) //3
    (-0.075 0.0015 0.0015) //4
    (-0.0015 0.0015 0.0015) //5
    (-0.0015 0.0015 -0.0015) //6
    (-0.075 0.0015 -0.0015)   //7
    
    // connection
    (0.0015 -0.0015 0.0015)//8
    (0.0015 -0.0015 -0.0015)//9
    (0.0015 0.0015 0.0015)//10
    (0.0015 0.0015 -0.0015)//11
    
    // inletB
    (0.075 -0.0015 0.0015)//12
    (0.075 -0.0015 -0.0015)//13
    (0.075 0.0015 0.0015)//14
    (0.075 0.0015 -0.0015)//15
    
    // outlet
    (-0.0015 -0.15 0.0015)//16
    (0.0015 -0.15 0.0015)//17
    (0.0015 -0.15 -0.0015)//18
    (-0.0015 -0.15 -0.0015)//19
    
);


blocks
(
    hex (0 1 2 3 4 5 6 7) (775 31 31) simpleGrading (1 1 1)	
    hex (1 8 9 2 5 10 11 6) (31 31 31) simpleGrading (1 1 1)
    hex (8 12 13 9 10 14 15 11) (775 31 31) simpleGrading (1 1 1)
    hex (16 17 18 19 1 8 9 2) (31 31 1550) simpleGrading (1 1 1)  // ref (1 50 1)
);

edges
();

boundary
(
    inletA
    {
        type patch;
        faces
        (
            (7 4 0 3)
        );
    }
    inletB
    {
        type patch;
        faces
        (
            (15 13 12 14)
        );
    }
    outlet
    {
        type patch;
        faces
        (
            (19 18 17 16)
        );
    }
    walls
    {
        type wall;
        faces
        (
            (0 3 2 1)
            (3 7 6 2)
            (6 7 4 5)
            (5 4 0 1)
            (8 10 5 1)
            (9 2 6 11)
            (10 11 6 5)
            (13 12 8 9) 
            (12 14 10 8)
            (14 15 11 10)
            (15 13 9 11)
            (17 8 1 16)
            (17 18 9 8)
            (18 19 2 9)
            (16 1 2 19) 
        );
    }
);

// ************************************************************************* //
