/*--------------------------------*- C++ -*----------------------------------*  =========                 |
  \      /  F ield         | OpenFOAM: The Open Source CFD Toolbox
   \    /   O peration     | Website:  https://openfoam.org
    \  /    A nd           | Version:  8
     \/     M anipulation  |
\*---------------------------------------------------------------------------*/
FoamFile
{
    version     2.0;
    format      ascii;
    class       dictionary;
    location    system;
    object      controlDict;
}
/*---------------------------------------------------------------------------*/

application     twoLiquidMixingFoam;

startFrom       startTime;

startTime       0;

stopAt          endTime;

endTime         0.5;

deltaT          0.0001;

writeControl    adjustableRunTime;

writeInterval   0.125;

purgeWrite      0;

writeFormat     ascii;

writePrecision  16;

writeCompression off;

timeFormat      general;

timePrecision   16;

runTimeModifiable yes;

adjustTimeStep  on;

maxCo           0.95;
maxAlphaCo      0.25;
maxDeltaT       0.001;

functions
{
  #includeFunc residuals
  #includeFunc yPlus
  volFieldValue1
  {
    // Mandatory entries (unmodifiable)
    type            volFieldValue;
    libs            ("libfieldFunctionObjects.so");
    log             true;
    writeControl    writeTime;
    writeFields     false;
    
    // Mandatory entries (runtime modifiable)
    fields          ("epsilon" "k" "alpha.A");
    operation       volAverage;
    regionType      all;
    } 
     /*section1
     {
         type            surfaceFieldValue;
         libs            ("libfieldFunctionObjects.so");
 
         log             true;
         writeControl    writeTime;
         writeFields     true;
 
         surfaceFormat   none; 
         regionType      sampledSurface;
         name            samplingSection1;
 
 	 sampledSurfaceDict
         {
               type        plane;               
		planeType pointAndNormal;
	        pointAndNormalDict
		    {
			basePoint       (0 -0.0015000150 0);
			normal          (0 1 0);
		    }
	 }
 
         operation       average;
 
         fields
         (
             NaOH
         );
     }
   
     section2
     {
         type            surfaceFieldValue;
         libs            ("libfieldFunctionObjects.so");
 
         log             true;
         writeControl    writeTime;
         writeFields     true;
 
         surfaceFormat   none; 
         regionType      sampledSurface;
         name            samplingSection2;
 
 	 sampledSurfaceDict
         {
               type        plane;               
		planeType pointAndNormal;
	        pointAndNormalDict
		    {
			basePoint       (0 -0.0030000300 0);
			normal          (0 1 0);
		    }
	 }
 
         operation       average;
 
         fields
         (
             NaOH
         );
     }
   
     section3
     {
         type            surfaceFieldValue;
         libs            ("libfieldFunctionObjects.so");
 
         log             true;
         writeControl    writeTime;
         writeFields     true;
 
         surfaceFormat   none; 
         regionType      sampledSurface;
         name            samplingSection3;
 
 	 sampledSurfaceDict
         {
               type        plane;               
		planeType pointAndNormal;
	        pointAndNormalDict
		    {
			basePoint       (0 -0.0045000450 0);
			normal          (0 1 0);
		    }
	 }
 
         operation       average;
 
         fields
         (
             NaOH
         );
     }
   
     section4
     {
         type            surfaceFieldValue;
         libs            ("libfieldFunctionObjects.so");
 
         log             true;
         writeControl    writeTime;
         writeFields     true;
 
         surfaceFormat   none; 
         regionType      sampledSurface;
         name            samplingSection4;
 
 	 sampledSurfaceDict
         {
               type        plane;               
		planeType pointAndNormal;
	        pointAndNormalDict
		    {
			basePoint       (0 -0.0060000600 0);
			normal          (0 1 0);
		    }
	 }
 
         operation       average;
 
         fields
         (
             NaOH
         );
     }
   
     section5
     {
         type            surfaceFieldValue;
         libs            ("libfieldFunctionObjects.so");
 
         log             true;
         writeControl    writeTime;
         writeFields     true;
 
         surfaceFormat   none; 
         regionType      sampledSurface;
         name            samplingSection5;
 
 	 sampledSurfaceDict
         {
               type        plane;               
		planeType pointAndNormal;
	        pointAndNormalDict
		    {
			basePoint       (0 -0.0075000750 0);
			normal          (0 1 0);
		    }
	 }
 
         operation       average;
 
         fields
         (
             NaOH
         );
     }
   
     section6
     {
         type            surfaceFieldValue;
         libs            ("libfieldFunctionObjects.so");
 
         log             true;
         writeControl    writeTime;
         writeFields     true;
 
         surfaceFormat   none; 
         regionType      sampledSurface;
         name            samplingSection6;
 
 	 sampledSurfaceDict
         {
               type        plane;               
		planeType pointAndNormal;
	        pointAndNormalDict
		    {
			basePoint       (0 -0.0090000900 0);
			normal          (0 1 0);
		    }
	 }
 
         operation       average;
 
         fields
         (
             NaOH
         );
     }
   
     section7
     {
         type            surfaceFieldValue;
         libs            ("libfieldFunctionObjects.so");
 
         log             true;
         writeControl    writeTime;
         writeFields     true;
 
         surfaceFormat   none; 
         regionType      sampledSurface;
         name            samplingSection7;
 
 	 sampledSurfaceDict
         {
               type        plane;               
		planeType pointAndNormal;
	        pointAndNormalDict
		    {
			basePoint       (0 -0.0105001050 0);
			normal          (0 1 0);
		    }
	 }
 
         operation       average;
 
         fields
         (
             NaOH
         );
     }
   
     section8
     {
         type            surfaceFieldValue;
         libs            ("libfieldFunctionObjects.so");
 
         log             true;
         writeControl    writeTime;
         writeFields     true;
 
         surfaceFormat   none; 
         regionType      sampledSurface;
         name            samplingSection8;
 
 	 sampledSurfaceDict
         {
               type        plane;               
		planeType pointAndNormal;
	        pointAndNormalDict
		    {
			basePoint       (0 -0.0120001200 0);
			normal          (0 1 0);
		    }
	 }
 
         operation       average;
 
         fields
         (
             NaOH
         );
     }
   
     section9
     {
         type            surfaceFieldValue;
         libs            ("libfieldFunctionObjects.so");
 
         log             true;
         writeControl    writeTime;
         writeFields     true;
 
         surfaceFormat   none; 
         regionType      sampledSurface;
         name            samplingSection9;
 
 	 sampledSurfaceDict
         {
               type        plane;               
		planeType pointAndNormal;
	        pointAndNormalDict
		    {
			basePoint       (0 -0.0135001350 0);
			normal          (0 1 0);
		    }
	 }
 
         operation       average;
 
         fields
         (
             NaOH
         );
     }
   
     section10
     {
         type            surfaceFieldValue;
         libs            ("libfieldFunctionObjects.so");
 
         log             true;
         writeControl    writeTime;
         writeFields     true;
 
         surfaceFormat   none; 
         regionType      sampledSurface;
         name            samplingSection10;
 
 	 sampledSurfaceDict
         {
               type        plane;               
		planeType pointAndNormal;
	        pointAndNormalDict
		    {
			basePoint       (0 -0.0150001500 0);
			normal          (0 1 0);
		    }
	 }
 
         operation       average;
 
         fields
         (
             NaOH
         );
     }
   
     section11
     {
         type            surfaceFieldValue;
         libs            ("libfieldFunctionObjects.so");
 
         log             true;
         writeControl    writeTime;
         writeFields     true;
 
         surfaceFormat   none; 
         regionType      sampledSurface;
         name            samplingSection11;
 
 	 sampledSurfaceDict
         {
               type        plane;               
		planeType pointAndNormal;
	        pointAndNormalDict
		    {
			basePoint       (0 -0.0165001650 0);
			normal          (0 1 0);
		    }
	 }
 
         operation       average;
 
         fields
         (
             NaOH
         );
     }
   
     section12
     {
         type            surfaceFieldValue;
         libs            ("libfieldFunctionObjects.so");
 
         log             true;
         writeControl    writeTime;
         writeFields     true;
 
         surfaceFormat   none; 
         regionType      sampledSurface;
         name            samplingSection12;
 
 	 sampledSurfaceDict
         {
               type        plane;               
		planeType pointAndNormal;
	        pointAndNormalDict
		    {
			basePoint       (0 -0.0180001800 0);
			normal          (0 1 0);
		    }
	 }
 
         operation       average;
 
         fields
         (
             NaOH
         );
     }
   
     section13
     {
         type            surfaceFieldValue;
         libs            ("libfieldFunctionObjects.so");
 
         log             true;
         writeControl    writeTime;
         writeFields     true;
 
         surfaceFormat   none; 
         regionType      sampledSurface;
         name            samplingSection13;
 
 	 sampledSurfaceDict
         {
               type        plane;               
		planeType pointAndNormal;
	        pointAndNormalDict
		    {
			basePoint       (0 -0.0195001950 0);
			normal          (0 1 0);
		    }
	 }
 
         operation       average;
 
         fields
         (
             NaOH
         );
     }
   
     section14
     {
         type            surfaceFieldValue;
         libs            ("libfieldFunctionObjects.so");
 
         log             true;
         writeControl    writeTime;
         writeFields     true;
 
         surfaceFormat   none; 
         regionType      sampledSurface;
         name            samplingSection14;
 
 	 sampledSurfaceDict
         {
               type        plane;               
		planeType pointAndNormal;
	        pointAndNormalDict
		    {
			basePoint       (0 -0.0210002100 0);
			normal          (0 1 0);
		    }
	 }
 
         operation       average;
 
         fields
         (
             NaOH
         );
     }
   
     section15
     {
         type            surfaceFieldValue;
         libs            ("libfieldFunctionObjects.so");
 
         log             true;
         writeControl    writeTime;
         writeFields     true;
 
         surfaceFormat   none; 
         regionType      sampledSurface;
         name            samplingSection15;
 
 	 sampledSurfaceDict
         {
               type        plane;               
		planeType pointAndNormal;
	        pointAndNormalDict
		    {
			basePoint       (0 -0.0225002250 0);
			normal          (0 1 0);
		    }
	 }
 
         operation       average;
 
         fields
         (
             NaOH
         );
     }
   
     section16
     {
         type            surfaceFieldValue;
         libs            ("libfieldFunctionObjects.so");
 
         log             true;
         writeControl    writeTime;
         writeFields     true;
 
         surfaceFormat   none; 
         regionType      sampledSurface;
         name            samplingSection16;
 
 	 sampledSurfaceDict
         {
               type        plane;               
		planeType pointAndNormal;
	        pointAndNormalDict
		    {
			basePoint       (0 -0.0240002400 0);
			normal          (0 1 0);
		    }
	 }
 
         operation       average;
 
         fields
         (
             NaOH
         );
     }
   
     section17
     {
         type            surfaceFieldValue;
         libs            ("libfieldFunctionObjects.so");
 
         log             true;
         writeControl    writeTime;
         writeFields     true;
 
         surfaceFormat   none; 
         regionType      sampledSurface;
         name            samplingSection17;
 
 	 sampledSurfaceDict
         {
               type        plane;               
		planeType pointAndNormal;
	        pointAndNormalDict
		    {
			basePoint       (0 -0.0255002550 0);
			normal          (0 1 0);
		    }
	 }
 
         operation       average;
 
         fields
         (
             NaOH
         );
     }
   
     section18
     {
         type            surfaceFieldValue;
         libs            ("libfieldFunctionObjects.so");
 
         log             true;
         writeControl    writeTime;
         writeFields     true;
 
         surfaceFormat   none; 
         regionType      sampledSurface;
         name            samplingSection18;
 
 	 sampledSurfaceDict
         {
               type        plane;               
		planeType pointAndNormal;
	        pointAndNormalDict
		    {
			basePoint       (0 -0.0270002700 0);
			normal          (0 1 0);
		    }
	 }
 
         operation       average;
 
         fields
         (
             NaOH
         );
     }
   
     section19
     {
         type            surfaceFieldValue;
         libs            ("libfieldFunctionObjects.so");
 
         log             true;
         writeControl    writeTime;
         writeFields     true;
 
         surfaceFormat   none; 
         regionType      sampledSurface;
         name            samplingSection19;
 
 	 sampledSurfaceDict
         {
               type        plane;               
		planeType pointAndNormal;
	        pointAndNormalDict
		    {
			basePoint       (0 -0.0285002850 0);
			normal          (0 1 0);
		    }
	 }
 
         operation       average;
 
         fields
         (
             NaOH
         );
     }
   
     section20
     {
         type            surfaceFieldValue;
         libs            ("libfieldFunctionObjects.so");
 
         log             true;
         writeControl    writeTime;
         writeFields     true;
 
         surfaceFormat   none; 
         regionType      sampledSurface;
         name            samplingSection20;
 
 	 sampledSurfaceDict
         {
               type        plane;               
		planeType pointAndNormal;
	        pointAndNormalDict
		    {
			basePoint       (0 -0.0300003000 0);
			normal          (0 1 0);
		    }
	 }
 
         operation       average;
 
         fields
         (
             NaOH
         );
     }
   
     section21
     {
         type            surfaceFieldValue;
         libs            ("libfieldFunctionObjects.so");
 
         log             true;
         writeControl    writeTime;
         writeFields     true;
 
         surfaceFormat   none; 
         regionType      sampledSurface;
         name            samplingSection21;
 
 	 sampledSurfaceDict
         {
               type        plane;               
		planeType pointAndNormal;
	        pointAndNormalDict
		    {
			basePoint       (0 -0.0315003150 0);
			normal          (0 1 0);
		    }
	 }
 
         operation       average;
 
         fields
         (
             NaOH
         );
     }
   
     section22
     {
         type            surfaceFieldValue;
         libs            ("libfieldFunctionObjects.so");
 
         log             true;
         writeControl    writeTime;
         writeFields     true;
 
         surfaceFormat   none; 
         regionType      sampledSurface;
         name            samplingSection22;
 
 	 sampledSurfaceDict
         {
               type        plane;               
		planeType pointAndNormal;
	        pointAndNormalDict
		    {
			basePoint       (0 -0.0330003300 0);
			normal          (0 1 0);
		    }
	 }
 
         operation       average;
 
         fields
         (
             NaOH
         );
     }
   
     section23
     {
         type            surfaceFieldValue;
         libs            ("libfieldFunctionObjects.so");
 
         log             true;
         writeControl    writeTime;
         writeFields     true;
 
         surfaceFormat   none; 
         regionType      sampledSurface;
         name            samplingSection23;
 
 	 sampledSurfaceDict
         {
               type        plane;               
		planeType pointAndNormal;
	        pointAndNormalDict
		    {
			basePoint       (0 -0.0345003450 0);
			normal          (0 1 0);
		    }
	 }
 
         operation       average;
 
         fields
         (
             NaOH
         );
     }
   
     section24
     {
         type            surfaceFieldValue;
         libs            ("libfieldFunctionObjects.so");
 
         log             true;
         writeControl    writeTime;
         writeFields     true;
 
         surfaceFormat   none; 
         regionType      sampledSurface;
         name            samplingSection24;
 
 	 sampledSurfaceDict
         {
               type        plane;               
		planeType pointAndNormal;
	        pointAndNormalDict
		    {
			basePoint       (0 -0.0360003600 0);
			normal          (0 1 0);
		    }
	 }
 
         operation       average;
 
         fields
         (
             NaOH
         );
     }
   
     section25
     {
         type            surfaceFieldValue;
         libs            ("libfieldFunctionObjects.so");
 
         log             true;
         writeControl    writeTime;
         writeFields     true;
 
         surfaceFormat   none; 
         regionType      sampledSurface;
         name            samplingSection25;
 
 	 sampledSurfaceDict
         {
               type        plane;               
		planeType pointAndNormal;
	        pointAndNormalDict
		    {
			basePoint       (0 -0.0375003750 0);
			normal          (0 1 0);
		    }
	 }
 
         operation       average;
 
         fields
         (
             NaOH
         );
     }
   
     section26
     {
         type            surfaceFieldValue;
         libs            ("libfieldFunctionObjects.so");
 
         log             true;
         writeControl    writeTime;
         writeFields     true;
 
         surfaceFormat   none; 
         regionType      sampledSurface;
         name            samplingSection26;
 
 	 sampledSurfaceDict
         {
               type        plane;               
		planeType pointAndNormal;
	        pointAndNormalDict
		    {
			basePoint       (0 -0.0390003900 0);
			normal          (0 1 0);
		    }
	 }
 
         operation       average;
 
         fields
         (
             NaOH
         );
     }
   
     section27
     {
         type            surfaceFieldValue;
         libs            ("libfieldFunctionObjects.so");
 
         log             true;
         writeControl    writeTime;
         writeFields     true;
 
         surfaceFormat   none; 
         regionType      sampledSurface;
         name            samplingSection27;
 
 	 sampledSurfaceDict
         {
               type        plane;               
		planeType pointAndNormal;
	        pointAndNormalDict
		    {
			basePoint       (0 -0.0405004050 0);
			normal          (0 1 0);
		    }
	 }
 
         operation       average;
 
         fields
         (
             NaOH
         );
     }
   
     section28
     {
         type            surfaceFieldValue;
         libs            ("libfieldFunctionObjects.so");
 
         log             true;
         writeControl    writeTime;
         writeFields     true;
 
         surfaceFormat   none; 
         regionType      sampledSurface;
         name            samplingSection28;
 
 	 sampledSurfaceDict
         {
               type        plane;               
		planeType pointAndNormal;
	        pointAndNormalDict
		    {
			basePoint       (0 -0.0420004200 0);
			normal          (0 1 0);
		    }
	 }
 
         operation       average;
 
         fields
         (
             NaOH
         );
     }
   
     section29
     {
         type            surfaceFieldValue;
         libs            ("libfieldFunctionObjects.so");
 
         log             true;
         writeControl    writeTime;
         writeFields     true;
 
         surfaceFormat   none; 
         regionType      sampledSurface;
         name            samplingSection29;
 
 	 sampledSurfaceDict
         {
               type        plane;               
		planeType pointAndNormal;
	        pointAndNormalDict
		    {
			basePoint       (0 -0.0435004350 0);
			normal          (0 1 0);
		    }
	 }
 
         operation       average;
 
         fields
         (
             NaOH
         );
     }
   
     section30
     {
         type            surfaceFieldValue;
         libs            ("libfieldFunctionObjects.so");
 
         log             true;
         writeControl    writeTime;
         writeFields     true;
 
         surfaceFormat   none; 
         regionType      sampledSurface;
         name            samplingSection30;
 
 	 sampledSurfaceDict
         {
               type        plane;               
		planeType pointAndNormal;
	        pointAndNormalDict
		    {
			basePoint       (0 -0.0450004500 0);
			normal          (0 1 0);
		    }
	 }
 
         operation       average;
 
         fields
         (
             NaOH
         );
     }
   
     section31
     {
         type            surfaceFieldValue;
         libs            ("libfieldFunctionObjects.so");
 
         log             true;
         writeControl    writeTime;
         writeFields     true;
 
         surfaceFormat   none; 
         regionType      sampledSurface;
         name            samplingSection31;
 
 	 sampledSurfaceDict
         {
               type        plane;               
		planeType pointAndNormal;
	        pointAndNormalDict
		    {
			basePoint       (0 -0.0465004650 0);
			normal          (0 1 0);
		    }
	 }
 
         operation       average;
 
         fields
         (
             NaOH
         );
     }
   
     section32
     {
         type            surfaceFieldValue;
         libs            ("libfieldFunctionObjects.so");
 
         log             true;
         writeControl    writeTime;
         writeFields     true;
 
         surfaceFormat   none; 
         regionType      sampledSurface;
         name            samplingSection32;
 
 	 sampledSurfaceDict
         {
               type        plane;               
		planeType pointAndNormal;
	        pointAndNormalDict
		    {
			basePoint       (0 -0.0480004800 0);
			normal          (0 1 0);
		    }
	 }
 
         operation       average;
 
         fields
         (
             NaOH
         );
     }
   
     section33
     {
         type            surfaceFieldValue;
         libs            ("libfieldFunctionObjects.so");
 
         log             true;
         writeControl    writeTime;
         writeFields     true;
 
         surfaceFormat   none; 
         regionType      sampledSurface;
         name            samplingSection33;
 
 	 sampledSurfaceDict
         {
               type        plane;               
		planeType pointAndNormal;
	        pointAndNormalDict
		    {
			basePoint       (0 -0.0495004950 0);
			normal          (0 1 0);
		    }
	 }
 
         operation       average;
 
         fields
         (
             NaOH
         );
     }
   
     section34
     {
         type            surfaceFieldValue;
         libs            ("libfieldFunctionObjects.so");
 
         log             true;
         writeControl    writeTime;
         writeFields     true;
 
         surfaceFormat   none; 
         regionType      sampledSurface;
         name            samplingSection34;
 
 	 sampledSurfaceDict
         {
               type        plane;               
		planeType pointAndNormal;
	        pointAndNormalDict
		    {
			basePoint       (0 -0.0510005100 0);
			normal          (0 1 0);
		    }
	 }
 
         operation       average;
 
         fields
         (
             NaOH
         );
     }
   
     section35
     {
         type            surfaceFieldValue;
         libs            ("libfieldFunctionObjects.so");
 
         log             true;
         writeControl    writeTime;
         writeFields     true;
 
         surfaceFormat   none; 
         regionType      sampledSurface;
         name            samplingSection35;
 
 	 sampledSurfaceDict
         {
               type        plane;               
		planeType pointAndNormal;
	        pointAndNormalDict
		    {
			basePoint       (0 -0.0525005250 0);
			normal          (0 1 0);
		    }
	 }
 
         operation       average;
 
         fields
         (
             NaOH
         );
     }
   
     section36
     {
         type            surfaceFieldValue;
         libs            ("libfieldFunctionObjects.so");
 
         log             true;
         writeControl    writeTime;
         writeFields     true;
 
         surfaceFormat   none; 
         regionType      sampledSurface;
         name            samplingSection36;
 
 	 sampledSurfaceDict
         {
               type        plane;               
		planeType pointAndNormal;
	        pointAndNormalDict
		    {
			basePoint       (0 -0.0540005400 0);
			normal          (0 1 0);
		    }
	 }
 
         operation       average;
 
         fields
         (
             NaOH
         );
     }
   
     section37
     {
         type            surfaceFieldValue;
         libs            ("libfieldFunctionObjects.so");
 
         log             true;
         writeControl    writeTime;
         writeFields     true;
 
         surfaceFormat   none; 
         regionType      sampledSurface;
         name            samplingSection37;
 
 	 sampledSurfaceDict
         {
               type        plane;               
		planeType pointAndNormal;
	        pointAndNormalDict
		    {
			basePoint       (0 -0.0555005550 0);
			normal          (0 1 0);
		    }
	 }
 
         operation       average;
 
         fields
         (
             NaOH
         );
     }
   
     section38
     {
         type            surfaceFieldValue;
         libs            ("libfieldFunctionObjects.so");
 
         log             true;
         writeControl    writeTime;
         writeFields     true;
 
         surfaceFormat   none; 
         regionType      sampledSurface;
         name            samplingSection38;
 
 	 sampledSurfaceDict
         {
               type        plane;               
		planeType pointAndNormal;
	        pointAndNormalDict
		    {
			basePoint       (0 -0.0570005700 0);
			normal          (0 1 0);
		    }
	 }
 
         operation       average;
 
         fields
         (
             NaOH
         );
     }
   
     section39
     {
         type            surfaceFieldValue;
         libs            ("libfieldFunctionObjects.so");
 
         log             true;
         writeControl    writeTime;
         writeFields     true;
 
         surfaceFormat   none; 
         regionType      sampledSurface;
         name            samplingSection39;
 
 	 sampledSurfaceDict
         {
               type        plane;               
		planeType pointAndNormal;
	        pointAndNormalDict
		    {
			basePoint       (0 -0.0585005850 0);
			normal          (0 1 0);
		    }
	 }
 
         operation       average;
 
         fields
         (
             NaOH
         );
     }
   
     section40
     {
         type            surfaceFieldValue;
         libs            ("libfieldFunctionObjects.so");
 
         log             true;
         writeControl    writeTime;
         writeFields     true;
 
         surfaceFormat   none; 
         regionType      sampledSurface;
         name            samplingSection40;
 
 	 sampledSurfaceDict
         {
               type        plane;               
		planeType pointAndNormal;
	        pointAndNormalDict
		    {
			basePoint       (0 -0.0600006000 0);
			normal          (0 1 0);
		    }
	 }
 
         operation       average;
 
         fields
         (
             NaOH
         );
     }
   
     section41
     {
         type            surfaceFieldValue;
         libs            ("libfieldFunctionObjects.so");
 
         log             true;
         writeControl    writeTime;
         writeFields     true;
 
         surfaceFormat   none; 
         regionType      sampledSurface;
         name            samplingSection41;
 
 	 sampledSurfaceDict
         {
               type        plane;               
		planeType pointAndNormal;
	        pointAndNormalDict
		    {
			basePoint       (0 -0.0615006150 0);
			normal          (0 1 0);
		    }
	 }
 
         operation       average;
 
         fields
         (
             NaOH
         );
     }
   
     section42
     {
         type            surfaceFieldValue;
         libs            ("libfieldFunctionObjects.so");
 
         log             true;
         writeControl    writeTime;
         writeFields     true;
 
         surfaceFormat   none; 
         regionType      sampledSurface;
         name            samplingSection42;
 
 	 sampledSurfaceDict
         {
               type        plane;               
		planeType pointAndNormal;
	        pointAndNormalDict
		    {
			basePoint       (0 -0.0630006300 0);
			normal          (0 1 0);
		    }
	 }
 
         operation       average;
 
         fields
         (
             NaOH
         );
     }
   
     section43
     {
         type            surfaceFieldValue;