/*--------------------------------*- C++ -*----------------------------------*\
  =========                 |
  \\      /  F ield         | OpenFOAM: The Open Source CFD Toolbox
   \\    /   O peration     | Website:  https://openfoam.org
    \\  /    A nd           | Version:  8
     \\/     M anipulation  |
\*---------------------------------------------------------------------------*/
FoamFile
{
    version     2.0;
    format      ascii;
    class       dictionary;
    location    "system";
    object      fvSolution;
}
// * * * * * * * * * * * * * * * * * * * * * * * * * * * * * * * * * * * * * //

solvers
{
    "alpha.A.*"
    {
        nAlphaSubCycles     2;
        nAlphaCorr          1;

        solver          smoothSolver;
        smoother        GaussSeidel;
        tolerance       1e-5;
        relTol          0.01;
        nSweeps         1;
    }

    p_rgh
    {
        solver          GAMG;
        tolerance       1e-6;
        relTol          0.01;
        smoother        GaussSeidel;
    }

    p_rghFinal
    {
        $p_rgh;
        relTol          0.01;
    }

    U
    {
        solver          smoothSolver;
        smoother        GaussSeidel;
        tolerance       1e-6;
        relTol          0.01;
        nSweeps         1;
    }
    epsilon
    {
        solver          smoothSolver;
        smoother        symGaussSeidel;
        tolerance       1e-5;
        relTol          0;
        minIter         1;
    }
    k
    {
        solver          smoothSolver;
        smoother        symGaussSeidel;
        tolerance       1e-5;
        relTol          0;
        minIter         1;
    }
    omega
    {
        solver          smoothSolver;
        smoother        symGaussSeidel;
        tolerance       1e-5;
        relTol          0;
        minIter         1;
    }
    var
    {
        solver          smoothSolver;
        smoother        symGaussSeidel;
        tolerance       1e-5;
        relTol          0;
        minIter         1;
    }
    "(M0|M1|M2|M3|M4|M5)"
    {
        solver          smoothSolver;
        smoother        symGaussSeidel;
        tolerance       1e-5;
        relTol          0;
        minIter         1;
    }
    "(Mg|OH|Na|Cl)"
    {
        solver          smoothSolver;
        smoother        symGaussSeidel;
        tolerance       1e-5;
        relTol          0;
        minIter         1;
    }
    
    UFinal
    {
        $U;
        relTol          0.1;
    }
    epsilonFinal
    {
        $epsilon;
        relTol          0.1;
    }
    kFinal
    {
        $k;
        relTol          0.1;
    }

    varFinal
    {
        $var;
        relTol          0.1;
    }
    omegaFinal
    {
        $omega;
        relTol          0.1;
    }
}

PIMPLE
{
    momentumPredictor   yes;
    nOuterCorrectors    1;
    nCorrectors         2;
    nNonOrthogonalCorrectors 1;

    pRefValue           0;
    pRefPoint           (-0.074858 0 0);
}

RELAX_FACTOR    1e-4;

relaxationFactors
{

    equations
    {
        "(M0|M1|M2|M3|M4|M5)"            $RELAX_FACTOR;
    }
}


// ************************************************************************* //
