/*--------------------------------*- C++ -*----------------------------------*\
| =========                |                                                  |
| \      /  F ield         | OpenFOAM: The Open Source CFD Toolbox            |
|  \    /   O peration     | Version:  2.1.x                                  |
|   \  /    A nd           | Web:      www.OpenFOAM.org                       |
|    \/     M anipulation  |                                                  |
\*---------------------------------------------------------------------------*/
FoamFile
{
    version     2.0;
    format      ascii;
    class       dictionary;
    object      sampleDict;
}
// * * * * * * * * * * * * * * * * * * * * * * * * * * * * * * * * * * * * * * * * * * * * *//
type sets;  
setFormat raw;
 
surfaceFormat raw;
formatOptions
{
    ensight
    {
        format  ascii;
    }
}
 
interpolationScheme cell;
 
fields
(
    NaOH
);
 
sets
(
      line_y1
      {
        type        lineFace;
        axis        distance;
        start       (-0.0010714286 -0.00150000000000000000  0.0015);
        end         (-0.0010714286 -0.00150000000000000000 -0.0015);
        // nPoints     150;
      }
 
      line_y2
      {
        type        lineFace;
        axis        distance;
        start       (-0.0006428572 -0.00150000000000000000  0.0015);
        end         (-0.0006428572 -0.00150000000000000000 -0.0015);
        // nPoints     150;
      }
 
      line_y3
      {
        type        lineFace;
        axis        distance;
        start       (-0.0002142858 -0.00150000000000000000  0.0015);
        end         (-0.0002142858 -0.00150000000000000000 -0.0015);
        // nPoints     150;
      }
 
      line_y4
      {
        type        lineFace;
        axis        distance;
        start       (0.0002142856 -0.00150000000000000000  0.0015);
        end         (0.0002142856 -0.00150000000000000000 -0.0015);
        // nPoints     150;
      }
 
      line_y5
      {
        type        lineFace;
        axis        distance;
        start       (0.0006428570 -0.00150000000000000000  0.0015);
        end         (0.0006428570 -0.00150000000000000000 -0.0015);
        // nPoints     150;
      }
 
      line_y6
      {
        type        lineFace;
        axis        distance;
        start       (0.0010714284 -0.00150000000000000000  0.0015);
        end         (0.0010714284 -0.00150000000000000000 -0.0015);
        // nPoints     150;
      }
 
      line_y7
      {
        type        lineFace;
        axis        distance;
        start       (-0.0010714286 -0.00300000000000000000  0.0015);
        end         (-0.0010714286 -0.00300000000000000000 -0.0015);
        // nPoints     150;
      }
 
      line_y8
      {
        type        lineFace;
        axis        distance;
        start       (-0.0006428572 -0.00300000000000000000  0.0015);
        end         (-0.0006428572 -0.00300000000000000000 -0.0015);
        // nPoints     150;
      }
 
      line_y9
      {
        type        lineFace;
        axis        distance;
        start       (-0.0002142858 -0.00300000000000000000  0.0015);
        end         (-0.0002142858 -0.00300000000000000000 -0.0015);
        // nPoints     150;
      }
 
      line_y10
      {
        type        lineFace;
        axis        distance;
        start       (0.0002142856 -0.00300000000000000000  0.0015);
        end         (0.0002142856 -0.00300000000000000000 -0.0015);
        // nPoints     150;
      }
 
      line_y11
      {
        type        lineFace;
        axis        distance;
        start       (0.0006428570 -0.00300000000000000000  0.0015);
        end         (0.0006428570 -0.00300000000000000000 -0.0015);
        // nPoints     150;
      }
 
      line_y12
      {
        type        lineFace;
        axis        distance;
        start       (0.0010714284 -0.00300000000000000000  0.0015);
        end         (0.0010714284 -0.00300000000000000000 -0.0015);
        // nPoints     150;
      }
 
      line_y13
      {
        type        lineFace;
        axis        distance;
        start       (-0.0010714286 -0.00450000000000000000  0.0015);
        end         (-0.0010714286 -0.00450000000000000000 -0.0015);
        // nPoints     150;
      }
 
      line_y14
      {
        type        lineFace;
        axis        distance;
        start       (-0.0006428572 -0.00450000000000000000  0.0015);
        end         (-0.0006428572 -0.00450000000000000000 -0.0015);
        // nPoints     150;
      }
 
      line_y15
      {
        type        lineFace;
        axis        distance;
        start       (-0.0002142858 -0.00450000000000000000  0.0015);
        end         (-0.0002142858 -0.00450000000000000000 -0.0015);
        // nPoints     150;
      }
 
      line_y16
      {
        type        lineFace;
        axis        distance;
        start       (0.0002142856 -0.00450000000000000000  0.0015);
        end         (0.0002142856 -0.00450000000000000000 -0.0015);
        // nPoints     150;
      }
 
      line_y17
      {
        type        lineFace;
        axis        distance;
        start       (0.0006428570 -0.00450000000000000000  0.0015);
        end         (0.0006428570 -0.00450000000000000000 -0.0015);
        // nPoints     150;
      }
 
      line_y18
      {
        type        lineFace;
        axis        distance;
        start       (0.0010714284 -0.00450000000000000000  0.0015);
        end         (0.0010714284 -0.00450000000000000000 -0.0015);
        // nPoints     150;
      }
 
      line_y19
      {
        type        lineFace;
        axis        distance;
        start       (-0.0010714286 -0.00600000000000000000  0.0015);
        end         (-0.0010714286 -0.00600000000000000000 -0.0015);
        // nPoints     150;
      }
 
      line_y20
      {
        type        lineFace;
        axis        distance;
        start       (-0.0006428572 -0.00600000000000000000  0.0015);
        end         (-0.0006428572 -0.00600000000000000000 -0.0015);
        // nPoints     150;
      }
 
      line_y21
      {
        type        lineFace;
        axis        distance;
        start       (-0.0002142858 -0.00600000000000000000  0.0015);
        end         (-0.0002142858 -0.00600000000000000000 -0.0015);
        // nPoints     150;
      }
 
      line_y22
      {
        type        lineFace;
        axis        distance;
        start       (0.0002142856 -0.00600000000000000000  0.0015);
        end         (0.0002142856 -0.00600000000000000000 -0.0015);
        // nPoints     150;
      }
 
      line_y23
      {
        type        lineFace;
        axis        distance;
        start       (0.0006428570 -0.00600000000000000000  0.0015);
        end         (0.0006428570 -0.00600000000000000000 -0.0015);
        // nPoints     150;
      }
 
      line_y24
      {
        type        lineFace;
        axis        distance;
        start       (0.0010714284 -0.00600000000000000000  0.0015);
        end         (0.0010714284 -0.00600000000000000000 -0.0015);
        // nPoints     150;
      }
 
      line_y25
      {
        type        lineFace;
        axis        distance;
        start       (-0.0010714286 -0.00750000000000000000  0.0015);
        end         (-0.0010714286 -0.00750000000000000000 -0.0015);
        // nPoints     150;
      }
 
      line_y26
      {
        type        lineFace;
        axis        distance;
        start       (-0.0006428572 -0.00750000000000000000  0.0015);
        end         (-0.0006428572 -0.00750000000000000000 -0.0015);
        // nPoints     150;
      }
 
      line_y27
      {
        type        lineFace;
        axis        distance;
        start       (-0.0002142858 -0.00750000000000000000  0.0015);
        end         (-0.0002142858 -0.00750000000000000000 -0.0015);
        // nPoints     150;
      }
 
      line_y28
      {
        type        lineFace;
        axis        distance;
        start       (0.0002142856 -0.00750000000000000000  0.0015);
        end         (0.0002142856 -0.00750000000000000000 -0.0015);
        // nPoints     150;
      }
 
      line_y29
      {
        type        lineFace;
        axis        distance;
        start       (0.0006428570 -0.00750000000000000000  0.0015);
        end         (0.0006428570 -0.00750000000000000000 -0.0015);
        // nPoints     150;
      }
 
      line_y30
      {
        type        lineFace;
        axis        distance;
        start       (0.0010714284 -0.00750000000000000000  0.0015);
        end         (0.0010714284 -0.00750000000000000000 -0.0015);
        // nPoints     150;
      }
 
      line_y31
      {
        type        lineFace;
        axis        distance;
        start       (-0.0010714286 -0.00900000000000000000  0.0015);
        end         (-0.0010714286 -0.00900000000000000000 -0.0015);
        // nPoints     150;
      }
 
      line_y32
      {
        type        lineFace;
        axis        distance;
        start       (-0.0006428572 -0.00900000000000000000  0.0015);
        end         (-0.0006428572 -0.00900000000000000000 -0.0015);
        // nPoints     150;
      }
 
      line_y33
      {
        type        lineFace;
        axis        distance;
        start       (-0.0002142858 -0.00900000000000000000  0.0015);
        end         (-0.0002142858 -0.00900000000000000000 -0.0015);
        // nPoints     150;
      }
 
      line_y34
      {
        type        lineFace;
        axis        distance;
        start       (0.0002142856 -0.00900000000000000000  0.0015);
        end         (0.0002142856 -0.00900000000000000000 -0.0015);
        // nPoints     150;
      }
 
      line_y35
      {
        type        lineFace;
        axis        distance;
        start       (0.0006428570 -0.00900000000000000000  0.0015);
        end         (0.0006428570 -0.00900000000000000000 -0.0015);
        // nPoints     150;
      }
 
      line_y36
      {
        type        lineFace;
        axis        distance;
        start       (0.0010714284 -0.00900000000000000000  0.0015);
        end         (0.0010714284 -0.00900000000000000000 -0.0015);
        // nPoints     150;
      }
 
      line_y37
      {
        type        lineFace;
        axis        distance;
        start       (-0.0010714286 -0.01050000000000000000  0.0015);
        end         (-0.0010714286 -0.01050000000000000000 -0.0015);
        // nPoints     150;
      }
 
      line_y38
      {
        type        lineFace;
        axis        distance;
        start       (-0.0006428572 -0.01050000000000000000  0.0015);
        end         (-0.0006428572 -0.01050000000000000000 -0.0015);
        // nPoints     150;
      }
 
      line_y39
      {
        type        lineFace;
        axis        distance;
        start       (-0.0002142858 -0.01050000000000000000  0.0015);
        end         (-0.0002142858 -0.01050000000000000000 -0.0015);
        // nPoints     150;
      }
 
      line_y40
      {
        type        lineFace;
        axis        distance;
        start       (0.0002142856 -0.01050000000000000000  0.0015);
        end         (0.0002142856 -0.01050000000000000000 -0.0015);
        // nPoints     150;
      }
 
      line_y41
      {
        type        lineFace;
        axis        distance;
        start       (0.0006428570 -0.01050000000000000000  0.0015);
        end         (0.0006428570 -0.01050000000000000000 -0.0015);
        // nPoints     150;
      }
 
      line_y42
      {
        type        lineFace;
        axis        distance;
        start       (0.0010714284 -0.01050000000000000000  0.0015);
        end         (0.0010714284 -0.01050000000000000000 -0.0015);
        // nPoints     150;
      }
 
      line_y43
      {
        type        lineFace;
        axis        distance;
        start       (-0.0010714286 -0.01200000000000000000  0.0015);
        end         (-0.0010714286 -0.01200000000000000000 -0.0015);
        // nPoints     150;
      }
 
      line_y44
      {
        type        lineFace;
        axis        distance;
        start       (-0.0006428572 -0.01200000000000000000  0.0015);
        end         (-0.0006428572 -0.01200000000000000000 -0.0015);
        // nPoints     150;
      }
 
      line_y45
      {
        type        lineFace;
        axis        distance;
        start       (-0.0002142858 -0.01200000000000000000  0.0015);
        end         (-0.0002142858 -0.01200000000000000000 -0.0015);
        // nPoints     150;
      }
 
      line_y46
      {
        type        lineFace;
        axis        distance;
        start       (0.0002142856 -0.01200000000000000000  0.0015);
        end         (0.0002142856 -0.01200000000000000000 -0.0015);
        // nPoints     150;
      }
 
      line_y47
      {
        type        lineFace;
        axis        distance;
        start       (0.0006428570 -0.01200000000000000000  0.0015);
        end         (0.0006428570 -0.01200000000000000000 -0.0015);
        // nPoints     150;
      }
 
      line_y48
      {
        type        lineFace;
        axis        distance;
        start       (0.0010714284 -0.01200000000000000000  0.0015);
        end         (0.0010714284 -0.01200000000000000000 -0.0015);
        // nPoints     150;
      }
 
      line_y49
      {
        type        lineFace;
        axis        distance;
        start       (-0.0010714286 -0.01350000000000000000  0.0015);
        end         (-0.0010714286 -0.01350000000000000000 -0.0015);
        // nPoints     150;
      }
 
      line_y50
      {
        type        lineFace;
        axis        distance;
        start       (-0.0006428572 -0.01350000000000000000  0.0015);
        end         (-0.0006428572 -0.01350000000000000000 -0.0015);
        // nPoints     150;
      }
 
      line_y51
      {
        type        lineFace;
        axis        distance;
        start       (-0.0002142858 -0.01350000000000000000  0.0015);
        end         (-0.0002142858 -0.01350000000000000000 -0.0015);
        // nPoints     150;
      }
 
      line_y52
      {
        type        lineFace;
        axis        distance;
        start       (0.0002142856 -0.01350000000000000000  0.0015);
        end         (0.0002142856 -0.01350000000000000000 -0.0015);
        // nPoints     150;
      }
 
      line_y53
      {
        type        lineFace;
        axis        distance;
        start       (0.0006428570 -0.01350000000000000000  0.0015);
        end         (0.0006428570 -0.01350000000000000000 -0.0015);
        // nPoints     150;
      }
 
      line_y54
      {
        type        lineFace;
        axis        distance;
        start       (0.0010714284 -0.01350000000000000000  0.0015);
        end         (0.0010714284 -0.01350000000000000000 -0.0015);
        // nPoints     150;
      }
 
      line_y55
      {
        type        lineFace;
        axis        distance;
        start       (-0.0010714286 -0.01500000000000000000  0.0015);
        end         (-0.0010714286 -0.01500000000000000000 -0.0015);
        // nPoints     150;
      }
 
      line_y56
      {
        type        lineFace;
        axis        distance;
        start       (-0.0006428572 -0.01500000000000000000  0.0015);
        end         (-0.0006428572 -0.01500000000000000000 -0.0015);
        // nPoints     150;
      }
 
      line_y57
      {
        type        lineFace;
        axis        distance;
        start       (-0.0002142858 -0.01500000000000000000  0.0015);
        end         (-0.0002142858 -0.01500000000000000000 -0.0015);
        // nPoints     150;
      }
 
      line_y58
      {
        type        lineFace;
        axis        distance;
        start       (0.0002142856 -0.01500000000000000000  0.0015);
        end         (0.0002142856 -0.01500000000000000000 -0.0015);
        // nPoints     150;
      }
 
      line_y59
      {
        type        lineFace;
        axis        distance;
        start       (0.0006428570 -0.01500000000000000000  0.0015);
        end         (0.0006428570 -0.01500000000000000000 -0.0015);
        // nPoints     150;
      }
 
      line_y60
      {
        type        lineFace;
        axis        distance;
        start       (0.0010714284 -0.01500000000000000000  0.0015);
        end         (0.0010714284 -0.01500000000000000000 -0.0015);
        // nPoints     150;
      }
 
      line_y61
      {
        type        lineFace;
        axis        distance;
        start       (-0.0010714286 -0.01650000000000000000  0.0015);
        end         (-0.0010714286 -0.01650000000000000000 -0.0015);
        // nPoints     150;
      }
 
      line_y62
      {
        type        lineFace;
        axis        distance;
        start       (-0.0006428572 -0.01650000000000000000  0.0015);
        end         (-0.0006428572 -0.01650000000000000000 -0.0015);
        // nPoints     150;
      }
 
      line_y63
      {
        type        lineFace;
        axis        distance;
        start       (-0.0002142858 -0.01650000000000000000  0.0015);
        end         (-0.0002142858 -0.01650000000000000000 -0.0015);
        // nPoints     150;
      }
 
      line_y64
      {
        type        lineFace;
        axis        distance;
        start       (0.0002142856 -0.01650000000000000000  0.0015);
        end         (0.0002142856 -0.01650000000000000000 -0.0015);
        // nPoints     150;
      }
 
      line_y65
      {
        type        lineFace;
        axis        distance;
        start       (0.0006428570 -0.01650000000000000000  0.0015);
        end         (0.0006428570 -0.01650000000000000000 -0.0015);
        // nPoints     150;
      }
 
      line_y66
      {
        type        lineFace;
        axis        distance;
        start       (0.0010714284 -0.01650000000000000000  0.0015);
        end         (0.0010714284 -0.01650000000000000000 -0.0015);
        // nPoints     150;
      }
 
      line_y67
      {
        type        lineFace;
        axis        distance;
        start       (-0.0010714286 -0.01800000000000000000  0.0015);
        end         (-0.0010714286 -0.01800000000000000000 -0.0015);
        // nPoints     150;
      }
 
      line_y68
      {
        type        lineFace;
        axis        distance;
        start       (-0.0006428572 -0.01800000000000000000  0.0015);
        end         (-0.0006428572 -0.01800000000000000000 -0.0015);
        // nPoints     150;
      }
 
      line_y69
      {
        type        lineFace;
        axis        distance;
        start       (-0.0002142858 -0.01800000000000000000  0.0015);
        end         (-0.0002142858 -0.01800000000000000000 -0.0015);
        // nPoints     150;
      }
 
      line_y70
      {
        type        lineFace;
        axis        distance;
        start       (0.0002142856 -0.01800000000000000000  0.0015);
        end         (0.0002142856 -0.01800000000000000000 -0.0015);
        // nPoints     150;
      }
 
      line_y71
      {
        type        lineFace;
        axis        distance;
        start       (0.0006428570 -0.01800000000000000000  0.0015);
        end         (0.0006428570 -0.01800000000000000000 -0.0015);
        // nPoints     150;
      }
 
      line_y72
      {
        type        lineFace;
        axis        distance;
        start       (0.0010714284 -0.01800000000000000000  0.0015);
        end         (0.0010714284 -0.01800000000000000000 -0.0015);
        // nPoints     150;
      }
 
      line_y73
      {
        type        lineFace;
        axis        distance;
        start       (-0.0010714286 -0.01950000000000000000  0.0015);
        end         (-0.0010714286 -0.01950000000000000000 -0.0015);
        // nPoints     150;
      }
 
      line_y74
      {
        type        lineFace;
        axis        distance;
        start       (-0.0006428572 -0.01950000000000000000  0.0015);
        end         (-0.0006428572 -0.01950000000000000000 -0.0015);
        // nPoints     150;
      }
 
      line_y75
      {
        type        lineFace;
        axis        distance;
        start       (-0.0002142858 -0.01950000000000000000  0.0015);
        end         (-0.0002142858 -0.01950000000000000000 -0.0015);
        // nPoints     150;
      }
 
      line_y76
      {
        type        lineFace;
        axis        distance;
        start       (0.0002142856 -0.01950000000000000000  0.0015);
        end         (0.0002142856 -0.01950000000000000000 -0.0015);
        // nPoints     150;
      }
 
      line_y77
      {
        type        lineFace;
        axis        distance;
        start       (0.0006428570 -0.01950000000000000000  0.0015);
        end         (0.0006428570 -0.01950000000000000000 -0.0015);
        // nPoints     150;
      }
 
      line_y78
      {
        type        lineFace;
        axis        distance;
        start       (0.0010714284 -0.01950000000000000000  0.0015);
        end         (0.0010714284 -0.01950000000000000000 -0.0015);
        // nPoints     150;
      }
 
      line_y79
      {
        type        lineFace;
        axis        distance;
        start       (-0.0010714286 -0.02100000000000000000  0.0015);
        end         (-0.0010714286 -0.02100000000000000000 -0.0015);
        // nPoints     150;
      }
 
      line_y80
      {
        type        lineFace;
        axis        distance;
        start       (-0.0006428572 -0.02100000000000000000  0.0015);
        end         (-0.0006428572 -0.02100000000000000000 -0.0015);
        // nPoints     150;
      }
 
      line_y81
      {
        type        lineFace;
        axis        distance;
        start       (-0.0002142858 -0.02100000000000000000  0.0015);
        end         (-0.0002142858 -0.02100000000000000000 -0.0015);
        // nPoints     150;
      }
 
      line_y82
      {
        type        lineFace;
        axis        distance;
        start       (0.0002142856 -0.02100000000000000000  0.0015);
        end         (0.0002142856 -0.02100000000000000000 -0.0015);
        // nPoints     150;
      }
 
      line_y83
      {
        type        lineFace;
        axis        distance;
        start       (0.0006428570 -0.02100000000000000000  0.0015);
        end         (0.0006428570 -0.02100000000000000000 -0.0015);
        // nPoints     150;
      }
 
      line_y84
      {
        type        lineFace;
        axis        distance;
        start       (0.0010714284 -0.02100000000000000000  0.0015);
        end         (0.0010714284 -0.02100000000000000000 -0.0015);
        // nPoints     150;
      }
 
      line_y85
      {
        type        lineFace;
        axis        distance;
        start       (-0.0010714286 -0.02250000000000000000  0.0015);
        end         (-0.0010714286 -0.02250000000000000000 -0.0015);
        // nPoints     150;
      }
 
      line_y86
      {
        type        lineFace;
        axis        distance;
        start       (-0.0006428572 -0.02250000000000000000  0.0015);
        end         (-0.0006428572 -0.02250000000000000000 -0.0015);
        // nPoints     150;
      }
 
      line_y87
      {
        type        lineFace;
        axis        distance;
        start       (-0.0002142858 -0.02250000000000000000  0.0015);
        end         (-0.0002142858 -0.02250000000000000000 -0.0015);
        // nPoints     150;
      }
 
      line_y88
      {
        type        lineFace;
        axis        distance;
        start       (0.0002142856 -0.02250000000000000000  0.0015);
        end         (0.0002142856 -0.02250000000000000000 -0.0015);
        // nPoints     150;
      }
 
      line_y89
      {
        type        lineFace;
        axis        distance;
        start       (0.0006428570 -0.02250000000000000000  0.0015);
        end         (0.0006428570 -0.02250000000000000000 -0.0015);
        // nPoints     150;
      }
 
      line_y90
      {
        type        lineFace;
        axis        distance;
        start       (0.0010714284 -0.02250000000000000000  0.0015);
        end         (0.0010714284 -0.02250000000000000000 -0.0015);
        // nPoints     150;
      }
 
      line_y91
      {
        type        lineFace;
        axis        distance;
        start       (-0.0010714286 -0.02400000000000000000  0.0015);
        end         (-0.0010714286 -0.02400000000000000000 -0.0015);
        // nPoints     150;
      }
 
      line_y92
      {
        type        lineFace;
        axis        distance;
        start       (-0.0006428572 -0.02400000000000000000  0.0015);
        end         (-0.0006428572 -0.02400000000000000000 -0.0015);
        // nPoints     150;
      }
 
      line_y93
      {
        type        lineFace;
        axis        distance;
        start       (-0.0002142858 -0.02400000000000000000  0.0015);
        end         (-0.0002142858 -0.02400000000000000000 -0.0015);
        // nPoints     150;
      }
 
      line_y94
      {
        type        lineFace;
        axis        distance;
        start       (0.0002142856 -0.02400000000000000000  0.0015);
        end         (0.0002142856 -0.02400000000000000000 -0.0015);
        // nPoints     150;
      }
 
      line_y95
      {
        type        lineFace;
        axis        distance;
        start       (0.0006428570 -0.02400000000000000000  0.0015);
        end         (0.0006428570 -0.02400000000000000000 -0.0015);
        // nPoints     150;
      }
 
      line_y96
      {
        type        lineFace;
        axis        distance;
        start       (0.0010714284 -0.02400000000000000000  0.0015);
        end         (0.0010714284 -0.02400000000000000000 -0.0015);
        // nPoints     150;
      }
 
      line_y97
      {
        type        lineFace;
        axis        distance;
        start       (-0.0010714286 -0.02550000000000000000  0.0015);
        end         (-0.0010714286 -0.02550000000000000000 -0.0015);
        // nPoints     150;
      }
 
      line_y98
      {
        type        lineFace;
        axis        distance;
        start       (-0.0006428572 -0.02550000000000000000  0.0015);
        end         (-0.0006428572 -0.02550000000000000000 -0.0015);
        // nPoints     150;
      }
 
      line_y99
      {
        type        lineFace;
        axis        distance;
        start       (-0.0002142858 -0.02550000000000000000  0.0015);
        end         (-0.0002142858 -0.02550000000000000000 -0.0015);
        // nPoints     150;
      }
 
      line_y100
      {
        type        lineFace;
        axis        distance;
        start       (0.0002142856 -0.02550000000000000000  0.0015);
        end         (0.0002142856 -0.02550000000000000000 -0.0015);
        // nPoints     150;
      }
 
      line_y101
      {
        type        lineFace;
        axis        distance;
        start       (0.0006428570 -0.02550000000000000000  0.0015);
        end         (0.0006428570 -0.02550000000000000000 -0.0015);
        // nPoints     150;
      }
 
      line_y102
      {
        type        lineFace;
        axis        distance;
        start       (0.0010714284 -0.02550000000000000000  0.0015);
        end         (0.0010714284 -0.02550000000000000000 -0.0015);
        // nPoints     150;
      }
 
      line_y103
      {
        type        lineFace;
        axis        distance;
        start       (-0.0010714286 -0.02700000000000000000  0.0015);
        end         (-0.0010714286 -0.02700000000000000000 -0.0015);
        // nPoints     150;
      }
 
      line_y104
      {
        type        lineFace;
        axis        distance;
        start       (-0.0006428572 -0.02700000000000000000  0.0015);
        end         (-0.0006428572 -0.02700000000000000000 -0.0015);
        // nPoints     150;
      }
 
      line_y105
      {
        type        lineFace;
        axis        distance;
        start       (-0.0002142858 -0.02700000000000000000  0.0015);
        end         (-0.0002142858 -0.02700000000000000000 -0.0015);
        // nPoints     150;
      }
 
      line_y106
      {
        type        lineFace;
        axis        distance;
        start       (0.0002142856 -0.02700000000000000000  0.0015);
        end         (0.0002142856 -0.02700000000000000000 -0.0015);
        // nPoints     150;
      }
 
      line_y107
      {
        type        lineFace;
        axis        distance;
        start       (0.0006428570 -0.02700000000000000000  0.0015);
        end         (0.0006428570 -0.02700000000000000000 -0.0015);
        // nPoints     150;
      }
 
      line_y108
      {
        type        lineFace;
        axis        distance;
        start       (0.0010714284 -0.02700000000000000000  0.0015);
        end         (0.0010714284 -0.02700000000000000000 -0.0015);
        // nPoints     150;
      }
 
      line_y109
      {
        type        lineFace;
        axis        distance;
        start       (-0.0010714286 -0.02850000000000000000  0.0015);
        end         (-0.0010714286 -0.02850000000000000000 -0.0015);
        // nPoints     150;
      }
 
      line_y110
      {
        type        lineFace;
        axis        distance;
        start       (-0.0006428572 -0.02850000000000000000  0.0015);
        end         (-0.0006428572 -0.02850000000000000000 -0.0015);
        // nPoints     150;
      }
 
      line_y111
      {
        type        lineFace;
        axis        distance;
        start       (-0.0002142858 -0.02850000000000000000  0.0015);
        end         (-0.0002142858 -0.02850000000000000000 -0.0015);
        // nPoints     150;
      }
 
      line_y112
      {
        type        lineFace;
        axis        distance;
        start       (0.0002142856 -0.02850000000000000000  0.0015);
        end         (0.0002142856 -0.02850000000000000000 -0.0015);
        // nPoints     150;
      }
 
      line_y113
      {
        type        lineFace;
        axis        distance;
        start       (0.0006428570 -0.02850000000000000000  0.0015);