/*--------------------------------*- C++ -*----------------------------------*\
  =========                 |
  \\      /  F ield         | OpenFOAM: The Open Source CFD Toolbox
   \\    /   O peration     | Website:  https://openfoam.org
    \\  /    A nd           | Version:  8
     \\/     M anipulation  |
\*---------------------------------------------------------------------------*/
FoamFile
{
    version     2.0;
    format      ascii;
    class       dictionary;
    object      topoSetDict;
}

// * * * * * * * * * * * * * * * * * * * * * * * * * * * * * * * * * * * * * //

actions
(   
    {
        name    section3;
        type    faceSet;
        action  new;
        source  boxToFace;
        sourceInfo
        {
        	box (-0.002 -0.003 -0.002) (0.002 0 -0.002):
        }
    }
);

// ************************************************************************* //
