/*--------------------------------*- C++ -*----------------------------------*\
  =========                 |
  \\      /  F ield         | OpenFOAM: The Open Source CFD Toolbox
   \\    /   O peration     | Website:  https://openfoam.org
    \\  /    A nd           | Version:  8
     \\/     M anipulation  |
\*---------------------------------------------------------------------------*/
FoamFile
{
    version     2.0;
    format      ascii;
    class       dictionary;
    location    "system";
    object      fvSolution;
}
// * * * * * * * * * * * * * * * * * * * * * * * * * * * * * * * * * * * * * //

solvers
{
    "alpha.A.*"
    {
        nAlphaSubCycles     2;
        nAlphaCorr          1;

        solver          smoothSolver;
        smoother        GaussSeidel;
        tolerance       1e-9;
        relTol          0;
        nSweeps         1;
    }

    p_rgh
    {
        solver          GAMG;
        tolerance       1e-7;
        relTol          1e-6;
        smoother        GaussSeidel;
    }

    p_rghFinal
    {
        $p_rgh;
        relTol          0;
    }

    U
    {
        solver          smoothSolver;
        smoother        GaussSeidel;
        tolerance       1e-7;
        relTol          1e-6;
        nSweeps         1;
    }
    epsilon
    {
        solver          PBiCGStab;
        preconditioner  DILU;
        tolerance       1e-06;
        relTol          1e-6;
    }
    k
    {
        solver          PBiCGStab;
        preconditioner  DILU;
        tolerance       1e-06;
        relTol          1e-6;
    }
    omega
    {
        solver          PBiCGStab;
        preconditioner  DILU;
        tolerance       1e-06;
        relTol          1e-6;
    }
    var
    {
        solver          GAMG;
        smoother        GaussSeidel;
        tolerance       1e-7;
        relTol          1e-6;
        nSweeps         1;
    }
    "(M0|M1|M2|M3|M4|M5)"
    {
        solver          smoothSolver;
        smoother        symGaussSeidel;
        tolerance       1e-8;
        relTol          0;
        minIter         1;
    }
    "(Mg|OH|Na|Cl)"
    {
        solver          smoothSolver;
        smoother        symGaussSeidel;
        tolerance       1e-8;
        relTol          0;
        minIter         1;
    }
    
    UFinal
    {
        $U;
        relTol          0;
    }
    epsilonFinal
    {
        $epsilon;
        relTol          0;
    }
    kFinal
    {
        $k;
        relTol          0;
    }

    varFinal
    {
        $var;
        relTol          0;
    }
    omegaFinal
    {
        $omega;
        relTol          0;
    }
}

PIMPLE
{
    momentumPredictor   yes;
    nOuterCorrectors    1;
    nCorrectors         2;
    nNonOrthogonalCorrectors 0;

    pRefValue           0;
    pRefPoint           (0 0.000012 -0.051);
}

RELAX_FACTOR    0.9;

relaxationFactors
{

    equations
    {
        "(M0|M1|M2|M3|M4|M5)"            $RELAX_FACTOR;
    }
}


// ************************************************************************* //
